100
CrN a.f.
Cr    0.074866    0.049669    0.000000
Cr    0.074866    0.049669    4.197168
Cr    4.297874    1.512350    2.098584
Cr    0.135655    2.996459    0.000000
Cr    0.135655    2.996459    4.197168
Cr    4.288982    4.457735    2.098584
Cr    0.127379    5.941450    0.000000
Cr    0.127379    5.941450    4.197168
Cr    4.351052    7.404099    2.098584
 C    3.022458    0.049828    0.000000
 C    3.022458    0.049828    4.197168
 C    1.349836    1.512395    2.098584
 C    3.083826    2.996285    0.000000
 C    3.083826    2.996285    4.197168
 C    1.341335    4.457467    2.098584
 C    3.075381    5.941564    0.000000
 C    3.075381    5.941564    4.197168
 C    1.402672    7.403950    2.098584
Ti    0.014660    8.875643    0.000000
Ti    0.014660    8.875643    4.197168
Ti    2.962512    8.875655    0.000000
Ti    2.962512    8.875655    4.197168
Ti    4.437592   10.406512    2.098584
Ti    1.489746   10.406492    2.098584
Ti    5.896949   11.902553    0.000000
Ti    5.896949   11.902553    4.197168
Ti    2.949069   11.902572    0.000000
Ti    2.949069   11.902572    4.197168
Ti    4.433877   13.441084    2.098584
Ti    1.486013   13.441133    2.098584
Ti    5.893387   14.936281    0.000000
Ti    5.893387   14.936281    4.197168
Ti    2.945482   14.936293    0.000000
Ti    2.945482   14.936293    4.197168
Ti    4.420228   16.466717    2.098584
Ti    1.472444   16.466642    2.098584
 N    5.843377    0.084225    2.098584
 N    2.895462    0.084417    2.098584
 N    1.534848    1.506443    0.000000
 N    1.534848    1.506443    4.197168
 N    4.482866    1.506310    0.000000
 N    4.482866    1.506310    4.197168
 N    5.818448    2.995460    2.098584
 N    2.870490    2.995286    2.098584
 N    1.555225    4.458337    0.000000
 N    1.555225    4.458337    4.197168
 N    4.503073    4.458466    0.000000
 N    4.503073    4.458466    4.197168
 N    5.838675    5.947364    2.098584
 N    2.890819    5.947559    2.098584
 N    1.530451    7.369667    0.000000
 N    1.530451    7.369667    4.197168
 N    4.478412    7.369674    0.000000
 N    4.478412    7.369674    4.197168
 N    5.881683    8.867526    2.098584
 N    2.933776    8.867404    2.098584
 N    1.481082   10.379455    0.000000
 N    1.481082   10.379455    4.197168
 N    4.428981   10.379478    0.000000
 N    4.428981   10.379478    4.197168
 N    0.010513   11.910706    2.098584
 N    2.958413   11.910741    2.098584
 N    1.476606   13.431841    0.000000
 N    1.476606   13.431841    4.197168
 N    4.424564   13.431835    0.000000
 N    4.424564   13.431835    4.197168
 N    5.901913   14.963036    2.098584
 N    2.953998   14.962972    2.098584
 N    1.501245   16.475395    0.000000
 N    1.501245   16.475395    4.197168
 N    4.449172   16.475466    0.000000
 N    4.449172   16.475466    4.197168
 N   -1.455821   -1.413620    0.000000
 N   -0.052470    0.084225   -2.098584
 N   -1.412981    1.506310    0.000000
 N   -0.052470    0.084225    2.098584
 N    1.492101   -1.413691    0.000000
 N   -1.455821   -1.413620    4.197168
 N   -1.412981    1.506310    4.197168
 N   -0.052470    0.084225    6.295753
 N    1.492101   -1.413691    4.197168
 N   -0.077400    2.995460   -2.098584
 N   -1.392775    4.458466    0.000000
 N   -0.077400    2.995460    2.098584
 N   -1.392775    4.458466    4.197168
 N   -0.077400    2.995460    6.295753
 N   -0.057173    5.947364   -2.098584
 N   -0.057173    5.947364    2.098584
 N   -1.417435    7.369674    0.000000
 N   -0.057173    5.947364    6.295753
 N   -1.417435    7.369674    4.197168
 N    5.852522   17.973310    2.098584
 N    2.904607   17.973503    2.098584
Ti    5.910507    8.875643    0.000000
Ti    5.910507    8.875643    4.197168
Ti   -1.484764   -1.422369   -2.098584
Ti   -1.484764   -1.422369    2.098584
Ti   -1.484764   -1.422369    6.295753
Ti    4.411083   -1.422369    2.098584
Ti    1.463299   -1.422443    2.098584
